Version 4
SHEET 1 1852 680
WIRE 512 -400 400 -400
WIRE 560 -400 512 -400
WIRE 672 -400 640 -400
WIRE 768 -400 672 -400
WIRE 400 -368 400 -400
WIRE 768 -368 768 -400
WIRE 512 -272 512 -400
WIRE 672 -272 672 -400
WIRE 400 -192 400 -304
WIRE 432 -192 400 -192
WIRE 768 -192 768 -304
WIRE 768 -192 752 -192
WIRE 432 -112 400 -112
WIRE 768 -112 752 -112
WIRE -112 -32 -112 -112
WIRE -112 -32 -240 -32
WIRE -96 -32 -112 -32
WIRE 0 -32 0 -112
WIRE 0 -32 -16 -32
WIRE 272 -32 0 -32
WIRE 400 -32 400 -112
WIRE 400 -32 272 -32
WIRE 432 -32 400 -32
WIRE 768 -32 752 -32
WIRE 272 -16 272 -32
WIRE -240 32 -240 -32
WIRE 400 48 400 -32
WIRE 432 48 400 48
WIRE 800 48 752 48
WIRE 272 64 272 48
WIRE 400 128 400 48
WIRE 432 128 400 128
WIRE 800 128 800 112
WIRE 800 128 752 128
WIRE 880 128 800 128
WIRE 944 128 880 128
WIRE 1152 128 944 128
WIRE 1328 128 1152 128
WIRE 880 160 880 128
WIRE 944 160 944 128
WIRE 1152 160 1152 128
WIRE -240 192 -240 112
WIRE 432 208 -16 208
WIRE 768 208 752 208
WIRE 1328 208 1328 128
WIRE 880 240 880 224
WIRE 944 240 944 224
WIRE -16 288 -16 208
WIRE 432 288 -16 288
WIRE 1152 288 1152 240
WIRE 1152 288 752 288
WIRE 1152 304 1152 288
WIRE 1328 352 1328 288
WIRE 432 368 160 368
WIRE 1152 400 1152 384
WIRE 160 416 160 368
WIRE -16 432 -16 288
WIRE 432 448 352 448
WIRE 784 448 752 448
WIRE 784 464 784 448
WIRE 352 480 352 448
WIRE 784 560 784 544
WIRE -16 576 -16 496
WIRE 160 576 160 496
WIRE 160 576 -16 576
WIRE 352 576 352 560
WIRE 352 576 160 576
WIRE 352 592 352 576
WIRE 784 640 784 624
FLAG -240 192 0
FLAG 768 208 0
FLAG 352 592 0
FLAG 784 640 0
FLAG 272 64 0
FLAG 1152 400 0
FLAG 880 240 0
FLAG -240 -32 Vin
FLAG 1328 128 Vout
FLAG 1328 352 0
FLAG -112 -112 ISP
FLAG 0 -112 ISN
FLAG 768 -32 ISP
FLAG 768 -112 ISN
FLAG 944 240 0
SYMBOL voltage -240 16 R0
WINDOW 123 0 0 Left 0
WINDOW 39 24 124 Left 2
SYMATTR SpiceLine Rser=140m
SYMATTR InstName V1
SYMATTR Value 6
SYMBOL PowerProducts\\LT3120 592 16 R0
SYMATTR InstName U1
SYMBOL ind 544 -384 R270
WINDOW 0 32 56 VTop 2
WINDOW 3 5 56 VBottom 2
SYMATTR InstName L1
SYMATTR Value 3.3µ
SYMATTR SpiceLine Ipk=10.8 Rser=0.0095 Rpar=0 Cpar=0 mfg="Murata" pn="DD1274AS-H-3R3N=P3"
SYMBOL cap 384 -368 R0
SYMATTR InstName C1
SYMATTR Value 0.22µ
SYMATTR SpiceLine V=25 Irms=0 Rser=0 Lser=0
SYMBOL cap 752 -368 R0
SYMATTR InstName C2
SYMATTR Value 0.22µ
SYMATTR SpiceLine V=25 Irms=0 Rser=0 Lser=0
SYMBOL cap -32 432 R0
SYMATTR InstName C3
SYMATTR Value 4.7µ
SYMATTR SpiceLine Rser=10m
SYMBOL res 336 464 R0
SYMATTR InstName R2
SYMATTR Value 75k
SYMBOL res 768 448 R0
SYMATTR InstName R3
SYMATTR Value 56.2k
SYMBOL cap 768 560 R0
SYMATTR InstName C4
SYMATTR Value 680p
SYMBOL cap 784 48 R0
SYMATTR InstName C5
SYMATTR Value 0.022µ
SYMATTR SpiceLine V=10 Irms=322m Rser=0.472482 Lser=0 mfg="KEMET" pn="C0603C223K8RAC" type="X7R"
SYMBOL res 0 -48 R90
WINDOW 0 0 56 VBottom 2
WINDOW 3 32 56 VTop 2
SYMATTR InstName R4
SYMATTR Value 5m
SYMATTR SpiceLine tol=1
SYMBOL cap 256 -16 R0
SYMATTR InstName C6
SYMATTR Value 10µ
SYMATTR SpiceLine Rser=10m
SYMBOL res 1136 144 R0
SYMATTR InstName R5
SYMATTR Value 277k
SYMBOL res 1136 288 R0
SYMATTR InstName R6
SYMATTR Value 100k
SYMBOL cap 864 160 R0
SYMATTR InstName C7
SYMATTR Value 22µ
SYMATTR SpiceLine Rser=19m
SYMBOL res 144 400 R0
SYMATTR InstName R7
SYMATTR Value 57.4k
SYMBOL res 1312 192 R0
SYMATTR InstName R1
SYMATTR Value 1.1
SYMBOL cap 928 160 R0
SYMATTR InstName C8
SYMATTR Value 22µ
SYMATTR SpiceLine Rser=19m
TEXT -80 664 Left 2 !.tran 0 15m 0 0.01 startup
